Cefamandole
  Marvin  08221118252D          

 31 34  0  0  1  0            999 V2000
    5.0610    1.7060    0.0000 C   0  0  0  0  0  0  0  0  0  0  0  0
    4.8895    0.8990    0.0000 N   0  0  0  0  0  0  0  0  0  0  0  0
    5.4415    0.2859    0.0000 N   0  0  0  0  0  0  0  0  0  0  0  0
    5.0290   -0.4285    0.0000 N   0  0  0  0  0  0  0  0  0  0  0  0
    4.2221   -0.2570    0.0000 N   0  0  0  0  0  0  0  0  0  0  0  0
    4.1358    0.5635    0.0000 C   0  0  0  0  0  0  0  0  0  0  0  0
    3.4214    0.9760    0.0000 S   0  0  0  0  0  0  0  0  0  0  0  0
    2.7069    0.5635    0.0000 C   0  0  0  0  0  0  0  0  0  0  0  0
    1.9924    0.9760    0.0000 C   0  0  0  0  0  0  0  0  0  0  0  0
    1.2780    0.5635    0.0000 C   0  0  0  0  0  0  0  0  0  0  0  0
    0.5635    0.9760    0.0000 N   0  0  1  0  0  0  0  0  0  0  0  0
    0.5635    1.8010    0.0000 C   0  0  2  0  0  0  0  0  0  0  0  0
    1.2780    2.2135    0.0000 S   0  0  0  0  0  0  0  0  0  0  0  0
    1.9924    1.8010    0.0000 C   0  0  0  0  0  0  0  0  0  0  0  0
   -0.2615    1.8010    0.0000 C   0  0  2  0  0  0  0  0  0  0  0  0
   -0.8449    2.3843    0.0000 N   0  0  0  0  0  0  0  0  0  0  0  0
   -0.6314    3.1812    0.0000 C   0  0  0  0  0  0  0  0  0  0  0  0
    0.1655    3.3948    0.0000 O   0  0  0  0  0  0  0  0  0  0  0  0
   -1.2147    3.7646    0.0000 C   0  0  2  0  0  0  0  0  0  0  0  0
   -1.0012    4.5615    0.0000 O   0  0  0  0  0  0  0  0  0  0  0  0
   -2.0116    3.5511    0.0000 C   0  0  0  0  0  0  0  0  0  0  0  0
   -2.2251    2.7542    0.0000 C   0  0  0  0  0  0  0  0  0  0  0  0
   -3.0220    2.5407    0.0000 C   0  0  0  0  0  0  0  0  0  0  0  0
   -3.6054    3.1240    0.0000 C   0  0  0  0  0  0  0  0  0  0  0  0
   -3.3919    3.9209    0.0000 C   0  0  0  0  0  0  0  0  0  0  0  0
   -2.5950    4.1344    0.0000 C   0  0  0  0  0  0  0  0  0  0  0  0
   -0.2615    0.9760    0.0000 C   0  0  0  0  0  0  0  0  0  0  0  0
   -0.8449    0.3926    0.0000 O   0  0  0  0  0  0  0  0  0  0  0  0
    1.2780   -0.2615    0.0000 C   0  0  0  0  0  0  0  0  0  0  0  0
    0.5635   -0.6740    0.0000 O   0  0  0  0  0  0  0  0  0  0  0  0
    1.9924   -0.6740    0.0000 O   0  0  0  0  0  0  0  0  0  0  0  0
  1  2  1  0  0  0  0
  2  3  1  0  0  0  0
  3  4  2  0  0  0  0
  4  5  1  0  0  0  0
  5  6  2  0  0  0  0
  2  6  1  0  0  0  0
  6  7  1  0  0  0  0
  7  8  1  0  0  0  0
  8  9  1  0  0  0  0
  9 10  2  0  0  0  0
 10 11  1  0  0  0  0
 12 11  1  1  0  0  0
 12 13  1  0  0  0  0
 13 14  1  0  0  0  0
  9 14  1  0  0  0  0
 12 15  1  0  0  0  0
 15 16  1  1  0  0  0
 16 17  1  0  0  0  0
 17 18  2  0  0  0  0
 17 19  1  0  0  0  0
 19 20  1  1  0  0  0
 19 21  1  0  0  0  0
 21 22  2  0  0  0  0
 22 23  1  0  0  0  0
 23 24  2  0  0  0  0
 24 25  1  0  0  0  0
 25 26  2  0  0  0  0
 21 26  1  0  0  0  0
 15 27  1  0  0  0  0
 11 27  1  0  0  0  0
 27 28  2  0  0  0  0
 10 29  1  0  0  0  0
 29 30  1  0  0  0  0
 29 31  2  0  0  0  0
M  END
>  <PUBCHEM_CID>
2613
21680723
23675643
23672568
6604545
23684999
456255

>  <ID>
UNE

$$$$
