66848146
  -OEChem-01271410022D

 27 27  0     0  0  0  0  0  0999 V2000
    3.7601   -0.7934    0.0000 S   0  0  0  0  0  0  0  0  0  0  0  0
    8.9086    0.2056    0.0000 O   0  0  0  0  0  0  0  0  0  0  0  0
    7.4223   -1.1327    0.0000 O   0  0  0  0  0  0  0  0  0  0  0  0
    5.7281   -1.4928    0.0000 O   0  0  0  0  0  0  0  0  0  0  0  0
    7.7496    1.4928    0.0000 O   0  0  0  0  0  0  0  0  0  0  0  0
    4.2601    0.7455    0.0000 N   0  0  0  0  0  0  0  0  0  0  0  0
    2.9511   -0.2056    0.0000 C   0  0  0  0  0  0  0  0  0  0  0  0
    4.5691   -0.2056    0.0000 C   0  0  0  0  0  0  0  0  0  0  0  0
    5.5202   -0.5146    0.0000 C   0  0  0  0  0  0  0  0  0  0  0  0
    3.2601    0.7455    0.0000 C   0  0  0  0  0  0  0  0  0  0  0  0
    9.6517    0.8747    0.0000 C   0  0  0  0  0  0  0  0  0  0  0  0
    6.2633    0.1545    0.0000 C   0  0  0  0  0  0  0  0  0  0  0  0
    2.0000   -0.5146    0.0000 C   0  0  0  0  0  0  0  0  0  0  0  0
    7.2144   -0.1545    0.0000 C   0  0  0  0  0  0  0  0  0  0  0  0
   10.6028    0.5657    0.0000 C   0  0  0  0  0  0  0  0  0  0  0  0
    7.9575    0.5146    0.0000 C   0  0  0  0  0  0  0  0  0  0  0  0
    2.8956    1.2470    0.0000 H   0  0  0  0  0  0  0  0  0  0  0  0
    9.9428    1.4222    0.0000 H   0  0  0  0  0  0  0  0  0  0  0  0
    9.1631    1.2564    0.0000 H   0  0  0  0  0  0  0  0  0  0  0  0
    6.1344    0.7610    0.0000 H   0  0  0  0  0  0  0  0  0  0  0  0
    1.8084    0.0750    0.0000 H   0  0  0  0  0  0  0  0  0  0  0  0
    1.4103   -0.7062    0.0000 H   0  0  0  0  0  0  0  0  0  0  0  0
    2.1916   -1.1043    0.0000 H   0  0  0  0  0  0  0  0  0  0  0  0
   10.4112   -0.0239    0.0000 H   0  0  0  0  0  0  0  0  0  0  0  0
   11.1924    0.3741    0.0000 H   0  0  0  0  0  0  0  0  0  0  0  0
   10.7943    1.1554    0.0000 H   0  0  0  0  0  0  0  0  0  0  0  0
    8.0119   -1.3242    0.0000 H   0  0  0  0  0  0  0  0  0  0  0  0
  1  7  1  0  0  0  0
  1  8  1  0  0  0  0
  2 11  1  0  0  0  0
  2 16  1  0  0  0  0
  3 14  1  0  0  0  0
  3 27  1  0  0  0  0
  4  9  2  0  0  0  0
  5 16  2  0  0  0  0
  6  8  2  0  0  0  0
  6 10  1  0  0  0  0
  7 10  2  0  0  0  0
  7 13  1  0  0  0  0
  8  9  1  0  0  0  0
  9 12  1  0  0  0  0
 10 17  1  0  0  0  0
 11 15  1  0  0  0  0
 11 18  1  0  0  0  0
 11 19  1  0  0  0  0
 12 14  2  3  0  0  0
 12 20  1  0  0  0  0
 13 21  1  0  0  0  0
 13 22  1  0  0  0  0
 13 23  1  0  0  0  0
 14 16  1  0  0  0  0
 15 24  1  0  0  0  0
 15 25  1  0  0  0  0
 15 26  1  0  0  0  0
M  END
> <PUBCHEM_COMPOUND_CID>
66848146

> <PUBCHEM_COMPOUND_CANONICALIZED>
1

> <PUBCHEM_CACTVS_COMPLEXITY>
316

> <PUBCHEM_CACTVS_HBOND_ACCEPTOR>
6

> <PUBCHEM_CACTVS_HBOND_DONOR>
1

> <PUBCHEM_CACTVS_ROTATABLE_BOND>
5

> <PUBCHEM_CACTVS_SUBSKEYS>
AAADccByOABAAAAAAAAAAAAAAAAAAWAAAAAAAAAAAAAAAAABgAAAHgQACAAACATh0gYuiRIIFgisALD3TAIA8KBzKDhAWAzoQEgBBABgISAGEAAAAADrIYIAAAAAAAAAAAAAAAAAAAAAAAAAAAAAAAAAAA==

> <PUBCHEM_IUPAC_OPENEYE_NAME>
ethyl 2-hydroxy-4-(5-methylthiazol-2-yl)-4-oxo-but-2-enoate

> <PUBCHEM_IUPAC_CAS_NAME>
2-hydroxy-4-(5-methyl-2-thiazolyl)-4-oxo-2-butenoic acid ethyl ester

> <PUBCHEM_IUPAC_NAME>
ethyl 2-hydroxy-4-(5-methyl-1,3-thiazol-2-yl)-4-oxobut-2-enoate

> <PUBCHEM_IUPAC_SYSTEMATIC_NAME>
ethyl 4-(5-methyl-1,3-thiazol-2-yl)-2-oxidanyl-4-oxidanylidene-but-2-enoate

> <PUBCHEM_IUPAC_TRADITIONAL_NAME>
2-hydroxy-4-keto-4-(5-methylthiazol-2-yl)but-2-enoic acid ethyl ester

> <PUBCHEM_IUPAC_INCHI>
InChI=1S/C10H11NO4S/c1-3-15-10(14)8(13)4-7(12)9-11-5-6(2)16-9/h4-5,13H,3H2,1-2H3

> <PUBCHEM_IUPAC_INCHIKEY>
FERMMGXRARLNMA-UHFFFAOYSA-N

> <PUBCHEM_XLOGP3_AA>
2.2

> <PUBCHEM_EXACT_MASS>
241.040879

> <PUBCHEM_MOLECULAR_FORMULA>
C10H11NO4S

> <PUBCHEM_MOLECULAR_WEIGHT>
241.26364

> <PUBCHEM_OPENEYE_CAN_SMILES>
CCOC(=O)C(=CC(=O)C1=NC=C(S1)C)O

> <PUBCHEM_OPENEYE_ISO_SMILES>
CCOC(=O)C(=CC(=O)C1=NC=C(S1)C)O

> <PUBCHEM_CACTVS_TPSA>
105

> <PUBCHEM_MONOISOTOPIC_WEIGHT>
241.040879

> <PUBCHEM_TOTAL_CHARGE>
0

> <PUBCHEM_HEAVY_ATOM_COUNT>
16

> <PUBCHEM_ATOM_DEF_STEREO_COUNT>
0

> <PUBCHEM_ATOM_UDEF_STEREO_COUNT>
0

> <PUBCHEM_BOND_DEF_STEREO_COUNT>
0

> <PUBCHEM_BOND_UDEF_STEREO_COUNT>
1

> <PUBCHEM_ISOTOPIC_ATOM_COUNT>
0

> <PUBCHEM_COMPONENT_COUNT>
1

> <PUBCHEM_CACTVS_TAUTO_COUNT>
8

> <PUBCHEM_COORDINATE_TYPE>
1
5
255

> <PUBCHEM_BONDANNOTATIONS>
1  7  8
1  8  8
12  14  1
6  10  8
6  8  8
7  10  8

$$$$
66848145
  -OEChem-01271410022D

 27 27  0     0  0  0  0  0  0999 V2000
    3.7601   -0.7934    0.0000 S   0  0  0  0  0  0  0  0  0  0  0  0
    8.9086    0.2056    0.0000 O   0  0  0  0  0  0  0  0  0  0  0  0
    7.4223   -1.1327    0.0000 O   0  0  0  0  0  0  0  0  0  0  0  0
    5.7281   -1.4928    0.0000 O   0  0  0  0  0  0  0  0  0  0  0  0
    7.7496    1.4928    0.0000 O   0  0  0  0  0  0  0  0  0  0  0  0
    4.2601    0.7455    0.0000 N   0  0  0  0  0  0  0  0  0  0  0  0
    2.9511   -0.2056    0.0000 C   0  0  0  0  0  0  0  0  0  0  0  0
    4.5691   -0.2056    0.0000 C   0  0  0  0  0  0  0  0  0  0  0  0
    5.5202   -0.5146    0.0000 C   0  0  0  0  0  0  0  0  0  0  0  0
    3.2601    0.7455    0.0000 C   0  0  0  0  0  0  0  0  0  0  0  0
    9.6517    0.8747    0.0000 C   0  0  0  0  0  0  0  0  0  0  0  0
    6.2633    0.1545    0.0000 C   0  0  0  0  0  0  0  0  0  0  0  0
    2.0000   -0.5146    0.0000 C   0  0  0  0  0  0  0  0  0  0  0  0
    7.2144   -0.1545    0.0000 C   0  0  0  0  0  0  0  0  0  0  0  0
   10.6028    0.5657    0.0000 C   0  0  0  0  0  0  0  0  0  0  0  0
    7.9575    0.5146    0.0000 C   0  0  0  0  0  0  0  0  0  0  0  0
    2.8956    1.2470    0.0000 H   0  0  0  0  0  0  0  0  0  0  0  0
    9.9428    1.4222    0.0000 H   0  0  0  0  0  0  0  0  0  0  0  0
    9.1631    1.2564    0.0000 H   0  0  0  0  0  0  0  0  0  0  0  0
    6.1344    0.7610    0.0000 H   0  0  0  0  0  0  0  0  0  0  0  0
    1.8084    0.0750    0.0000 H   0  0  0  0  0  0  0  0  0  0  0  0
    1.4103   -0.7062    0.0000 H   0  0  0  0  0  0  0  0  0  0  0  0
    2.1916   -1.1043    0.0000 H   0  0  0  0  0  0  0  0  0  0  0  0
   10.4112   -0.0239    0.0000 H   0  0  0  0  0  0  0  0  0  0  0  0
   11.1924    0.3741    0.0000 H   0  0  0  0  0  0  0  0  0  0  0  0
   10.7943    1.1554    0.0000 H   0  0  0  0  0  0  0  0  0  0  0  0
    8.0119   -1.3242    0.0000 H   0  0  0  0  0  0  0  0  0  0  0  0
  1  7  1  0  0  0  0
  1  8  1  0  0  0  0
  2 11  1  0  0  0  0
  2 16  1  0  0  0  0
  3 14  1  0  0  0  0
  3 27  1  0  0  0  0
  4  9  2  0  0  0  0
  5 16  2  0  0  0  0
  6  8  2  0  0  0  0
  6 10  1  0  0  0  0
  7 10  2  0  0  0  0
  7 13  1  0  0  0  0
  8  9  1  0  0  0  0
  9 12  1  0  0  0  0
 10 17  1  0  0  0  0
 11 15  1  0  0  0  0
 11 18  1  0  0  0  0
 11 19  1  0  0  0  0
 12 14  2  0  0  0  0
 12 20  1  0  0  0  0
 13 21  1  0  0  0  0
 13 22  1  0  0  0  0
 13 23  1  0  0  0  0
 14 16  1  0  0  0  0
 15 24  1  0  0  0  0
 15 25  1  0  0  0  0
 15 26  1  0  0  0  0
M  END
> <PUBCHEM_COMPOUND_CID>
66848145

> <PUBCHEM_COMPOUND_CANONICALIZED>
1

> <PUBCHEM_CACTVS_COMPLEXITY>
316

> <PUBCHEM_CACTVS_HBOND_ACCEPTOR>
6

> <PUBCHEM_CACTVS_HBOND_DONOR>
1

> <PUBCHEM_CACTVS_ROTATABLE_BOND>
5

> <PUBCHEM_CACTVS_SUBSKEYS>
AAADccByOABAAAAAAAAAAAAAAAAAAWAAAAAAAAAAAAAAAAABgAAAHgQACAAACATh0gYuiRIIFgisALD3TAIA8KBzKDhAWAzoQEgBBABgISAGEAAAAADrIYIAAAAAAAAAAAAAAAAAAAAAAAAAAAAAAAAAAA==

> <PUBCHEM_IUPAC_OPENEYE_NAME>
ethyl (Z)-2-hydroxy-4-(5-methylthiazol-2-yl)-4-oxo-but-2-enoate

> <PUBCHEM_IUPAC_CAS_NAME>
(Z)-2-hydroxy-4-(5-methyl-2-thiazolyl)-4-oxo-2-butenoic acid ethyl ester

> <PUBCHEM_IUPAC_NAME>
ethyl (Z)-2-hydroxy-4-(5-methyl-1,3-thiazol-2-yl)-4-oxobut-2-enoate

> <PUBCHEM_IUPAC_SYSTEMATIC_NAME>
ethyl (Z)-4-(5-methyl-1,3-thiazol-2-yl)-2-oxidanyl-4-oxidanylidene-but-2-enoate

> <PUBCHEM_IUPAC_TRADITIONAL_NAME>
(Z)-2-hydroxy-4-keto-4-(5-methylthiazol-2-yl)but-2-enoic acid ethyl ester

> <PUBCHEM_IUPAC_INCHI>
InChI=1S/C10H11NO4S/c1-3-15-10(14)8(13)4-7(12)9-11-5-6(2)16-9/h4-5,13H,3H2,1-2H3/b8-4-

> <PUBCHEM_IUPAC_INCHIKEY>
FERMMGXRARLNMA-YWEYNIOJSA-N

> <PUBCHEM_XLOGP3_AA>
2.2

> <PUBCHEM_EXACT_MASS>
241.040879

> <PUBCHEM_MOLECULAR_FORMULA>
C10H11NO4S

> <PUBCHEM_MOLECULAR_WEIGHT>
241.26364

> <PUBCHEM_OPENEYE_CAN_SMILES>
CCOC(=O)C(=CC(=O)C1=NC=C(S1)C)O

> <PUBCHEM_OPENEYE_ISO_SMILES>
CCOC(=O)/C(=C/C(=O)C1=NC=C(S1)C)/O

> <PUBCHEM_CACTVS_TPSA>
105

> <PUBCHEM_MONOISOTOPIC_WEIGHT>
241.040879

> <PUBCHEM_TOTAL_CHARGE>
0

> <PUBCHEM_HEAVY_ATOM_COUNT>
16

> <PUBCHEM_ATOM_DEF_STEREO_COUNT>
0

> <PUBCHEM_ATOM_UDEF_STEREO_COUNT>
0

> <PUBCHEM_BOND_DEF_STEREO_COUNT>
1

> <PUBCHEM_BOND_UDEF_STEREO_COUNT>
0

> <PUBCHEM_ISOTOPIC_ATOM_COUNT>
0

> <PUBCHEM_COMPONENT_COUNT>
1

> <PUBCHEM_CACTVS_TAUTO_COUNT>
8

> <PUBCHEM_COORDINATE_TYPE>
1
5
255

> <PUBCHEM_BONDANNOTATIONS>
1  7  8
1  8  8
6  10  8
6  8  8
7  10  8

$$$$
