9929899
  -OEChem-01031419412D

 60 63  0     1  0  0  0  0  0999 V2000
    8.2561    2.9151    0.0000 S   0  0  2  0  0  0  0  0  0  0  0  0
    8.2561   -0.0849    0.0000 O   0  0  0  0  0  0  0  0  0  0  0  0
    2.3079   -2.5549    0.0000 O   0  0  0  0  0  0  0  0  0  0  0  0
    3.8112   -3.4151    0.0000 O   0  0  0  0  0  0  0  0  0  0  0  0
    7.3901    3.4151    0.0000 O   0  0  0  0  0  0  0  0  0  0  0  0
    6.5241   -0.0849    0.0000 C   0  0  1  0  0  0  0  0  0  0  0  0
    5.6580    0.4151    0.0000 C   0  0  3  0  0  0  0  0  0  0  0  0
    4.7480   -0.0917    0.0000 C   0  0  1  0  0  0  0  0  0  0  0  0
    4.7400   -1.1333    0.0000 C   0  0  2  0  0  0  0  0  0  0  0  0
    6.5241    1.9151    0.0000 C   0  0  2  0  0  0  0  0  0  0  0  0
    5.6580    1.4151    0.0000 C   0  0  0  0  0  0  0  0  0  0  0  0
    7.3901    0.4151    0.0000 C   0  0  1  0  0  0  0  0  0  0  0  0
    6.5401   -1.1264    0.0000 C   0  0  0  0  0  0  0  0  0  0  0  0
    6.1241    0.5151    0.0000 C   0  0  0  0  0  0  0  0  0  0  0  0
    7.3901    1.4151    0.0000 C   0  0  1  0  0  0  0  0  0  0  0  0
    5.6421   -1.6542    0.0000 C   0  0  0  0  0  0  0  0  0  0  0  0
    6.1241    1.3151    0.0000 C   0  0  0  0  0  0  0  0  0  0  0  0
    3.8046   -1.6831    0.0000 C   0  0  2  0  0  0  0  0  0  0  0  0
    3.8212    0.4723    0.0000 C   0  0  0  0  0  0  0  0  0  0  0  0
    4.7557    0.9082    0.0000 C   0  0  0  0  0  0  0  0  0  0  0  0
    2.8650   -1.1406    0.0000 C   0  0  0  0  0  0  0  0  0  0  0  0
    2.8733   -0.0556    0.0000 C   0  0  0  0  0  0  0  0  0  0  0  0
    8.2561    1.9151    0.0000 C   0  0  0  0  0  0  0  0  0  0  0  0
    4.3079   -2.5472    0.0000 C   0  0  0  0  0  0  0  0  0  0  0  0
    3.3079   -2.5510    0.0000 C   0  0  0  0  0  0  0  0  0  0  0  0
    9.1221    3.4151    0.0000 C   0  0  0  0  0  0  0  0  0  0  0  0
    4.9252    0.8458    0.0000 H   0  0  0  0  0  0  0  0  0  0  0  0
    4.7433   -1.9833    0.0000 H   0  0  0  0  0  0  0  0  0  0  0  0
    6.5241    2.7651    0.0000 H   0  0  0  0  0  0  0  0  0  0  0  0
    5.4460    1.9977    0.0000 H   0  0  0  0  0  0  0  0  0  0  0  0
    5.0475    1.3074    0.0000 H   0  0  0  0  0  0  0  0  0  0  0  0
    7.3901   -0.2049    0.0000 H   0  0  0  0  0  0  0  0  0  0  0  0
    6.7582   -1.7068    0.0000 H   0  0  0  0  0  0  0  0  0  0  0  0
    7.1493   -1.0109    0.0000 H   0  0  0  0  0  0  0  0  0  0  0  0
    5.5370    0.7146    0.0000 H   0  0  0  0  0  0  0  0  0  0  0  0
    6.7175    0.6948    0.0000 H   0  0  0  0  0  0  0  0  0  0  0  0
    7.3901    2.0351    0.0000 H   0  0  0  0  0  0  0  0  0  0  0  0
    5.2448   -2.1301    0.0000 H   0  0  0  0  0  0  0  0  0  0  0  0
    6.0430   -2.1270    0.0000 H   0  0  0  0  0  0  0  0  0  0  0  0
    5.7463    1.8067    0.0000 H   0  0  0  0  0  0  0  0  0  0  0  0
    6.7175    1.1354    0.0000 H   0  0  0  0  0  0  0  0  0  0  0  0
    4.2294    0.9390    0.0000 H   0  0  0  0  0  0  0  0  0  0  0  0
    3.4313    0.9544    0.0000 H   0  0  0  0  0  0  0  0  0  0  0  0
    5.3757    0.9034    0.0000 H   0  0  0  0  0  0  0  0  0  0  0  0
    4.7605    1.5282    0.0000 H   0  0  0  0  0  0  0  0  0  0  0  0
    4.1358    0.9130    0.0000 H   0  0  0  0  0  0  0  0  0  0  0  0
    2.2549   -1.0298    0.0000 H   0  0  0  0  0  0  0  0  0  0  0  0
    2.6514   -1.7226    0.0000 H   0  0  0  0  0  0  0  0  0  0  0  0
    2.6688    0.5297    0.0000 H   0  0  0  0  0  0  0  0  0  0  0  0
    2.2616   -0.1570    0.0000 H   0  0  0  0  0  0  0  0  0  0  0  0
    8.4682    1.3325    0.0000 H   0  0  0  0  0  0  0  0  0  0  0  0
    8.8667    2.0228    0.0000 H   0  0  0  0  0  0  0  0  0  0  0  0
    3.7722   -2.8592    0.0000 H   0  0  0  0  0  0  0  0  0  0  0  0
    4.6200   -3.0829    0.0000 H   0  0  0  0  0  0  0  0  0  0  0  0
    4.8436   -2.2351    0.0000 H   0  0  0  0  0  0  0  0  0  0  0  0
    8.7930    0.2251    0.0000 H   0  0  0  0  0  0  0  0  0  0  0  0
    2.0000   -3.0930    0.0000 H   0  0  0  0  0  0  0  0  0  0  0  0
    9.4321    2.8782    0.0000 H   0  0  0  0  0  0  0  0  0  0  0  0
    9.6591    3.7251    0.0000 H   0  0  0  0  0  0  0  0  0  0  0  0
    8.8121    3.9520    0.0000 H   0  0  0  0  0  0  0  0  0  0  0  0
  1  5  2  0  0  0  0
  1 23  1  0  0  0  0
  1 26  1  1  0  0  0
 12  2  1  1  0  0  0
  2 56  1  0  0  0  0
  3 25  1  0  0  0  0
  3 57  1  0  0  0  0
  4 25  2  0  0  0  0
  6  7  1  0  0  0  0
  6 12  1  0  0  0  0
  6 13  1  6  0  0  0
  6 14  1  0  0  0  0
  7  8  1  0  0  0  0
  7 11  1  0  0  0  0
  7 27  1  0  0  0  0
  8  9  1  0  0  0  0
  8 19  1  0  0  0  0
  8 20  1  6  0  0  0
  9 16  1  0  0  0  0
  9 18  1  0  0  0  0
  9 28  1  1  0  0  0
 10 11  1  0  0  0  0
 10 15  1  0  0  0  0
 10 17  1  0  0  0  0
 10 29  1  1  0  0  0
 11 30  1  0  0  0  0
 11 31  1  0  0  0  0
 12 15  1  0  0  0  0
 12 32  1  0  0  0  0
 13 16  1  0  0  0  0
 13 33  1  0  0  0  0
 13 34  1  0  0  0  0
 14 17  1  0  0  0  0
 14 35  1  0  0  0  0
 14 36  1  0  0  0  0
 15 23  1  6  0  0  0
 15 37  1  0  0  0  0
 16 38  1  0  0  0  0
 16 39  1  0  0  0  0
 17 40  1  0  0  0  0
 17 41  1  0  0  0  0
 18 21  1  0  0  0  0
 18 24  1  1  0  0  0
 18 25  1  0  0  0  0
 19 22  1  0  0  0  0
 19 42  1  0  0  0  0
 19 43  1  0  0  0  0
 20 44  1  0  0  0  0
 20 45  1  0  0  0  0
 20 46  1  0  0  0  0
 21 22  1  0  0  0  0
 21 47  1  0  0  0  0
 21 48  1  0  0  0  0
 22 49  1  0  0  0  0
 22 50  1  0  0  0  0
 23 51  1  0  0  0  0
 23 52  1  0  0  0  0
 24 53  1  0  0  0  0
 24 54  1  0  0  0  0
 24 55  1  0  0  0  0
 26 58  1  0  0  0  0
 26 59  1  0  0  0  0
 26 60  1  0  0  0  0
M  END
> <PUBCHEM_COMPOUND_CID>
9929899

> <PUBCHEM_COMPOUND_CANONICALIZED>
1

> <PUBCHEM_CACTVS_COMPLEXITY>
636

> <PUBCHEM_CACTVS_HBOND_ACCEPTOR>
5

> <PUBCHEM_CACTVS_HBOND_DONOR>
2

> <PUBCHEM_CACTVS_ROTATABLE_BOND>
3

> <PUBCHEM_CACTVS_SUBSKEYS>
AAADcfB4OABAAAAAAAAAAAAAAAAAAAAAAAAwYMGDAAAAAADAAAAAGgQACAAADxSkwAKCCAAAAgoIAACQCEBAAAAAABAAAAEAAAAAEBIgAAAAQAAEAAAAAAGIyPCPgAAAAAAAAACAAAYAADAAAAAAAAAAAA==

> <PUBCHEM_IUPAC_INCHI>
InChI=1S/C21H34O4S/c1-19-7-4-8-20(2,18(23)24)15(19)6-10-21-9-5-13(11-16(19)21)14(17(21)22)12-26(3)25/h13-17,22H,4-12H2,1-3H3,(H,23,24)/t13-,14+,15+,16?,17-,19-,20-,21+,26+/m1/s1

> <PUBCHEM_IUPAC_INCHIKEY>
RSTMEZAVUUMLEO-WPUYLWFMSA-N

> <PUBCHEM_XLOGP3_AA>
3.3

> <PUBCHEM_EXACT_MASS>
382.217781

> <PUBCHEM_MOLECULAR_FORMULA>
C21H34O4S

> <PUBCHEM_MOLECULAR_WEIGHT>
382.55726

> <PUBCHEM_OPENEYE_CAN_SMILES>
CC12CCCC(C1CCC34C2CC(CC3)C(C4O)CS(=O)C)(C)C(=O)O

> <PUBCHEM_OPENEYE_ISO_SMILES>
C[C@@]12CCC[C@@]([C@H]1CC[C@]34C2C[C@@H](CC3)[C@@H]([C@H]4O)C[S@@](=O)C)(C)C(=O)O

> <PUBCHEM_CACTVS_TPSA>
93.8

> <PUBCHEM_MONOISOTOPIC_WEIGHT>
382.217781

> <PUBCHEM_TOTAL_CHARGE>
0

> <PUBCHEM_HEAVY_ATOM_COUNT>
26

> <PUBCHEM_ATOM_DEF_STEREO_COUNT>
8

> <PUBCHEM_ATOM_UDEF_STEREO_COUNT>
1

> <PUBCHEM_BOND_DEF_STEREO_COUNT>
0

> <PUBCHEM_BOND_UDEF_STEREO_COUNT>
0

> <PUBCHEM_ISOTOPIC_ATOM_COUNT>
0

> <PUBCHEM_COMPONENT_COUNT>
1

> <PUBCHEM_CACTVS_TAUTO_COUNT>
1

> <PUBCHEM_COORDINATE_TYPE>
1
5
255

> <PUBCHEM_BONDANNOTATIONS>
1  26  5
10  29  5
15  23  6
18  24  5
12  2  5
6  13  6
7  27  3
8  20  6
9  28  5

$$$$
9842975
  -OEChem-01031419412D

 60 63  0     1  0  0  0  0  0999 V2000
    8.2561    2.9151    0.0000 S   0  0  1  0  0  0  0  0  0  0  0  0
    8.2561   -0.0849    0.0000 O   0  0  0  0  0  0  0  0  0  0  0  0
    2.3079   -2.5549    0.0000 O   0  0  0  0  0  0  0  0  0  0  0  0
    3.8112   -3.4151    0.0000 O   0  0  0  0  0  0  0  0  0  0  0  0
    7.3901    3.4151    0.0000 O   0  0  0  0  0  0  0  0  0  0  0  0
    6.5241   -0.0849    0.0000 C   0  0  1  0  0  0  0  0  0  0  0  0
    5.6580    0.4151    0.0000 C   0  0  3  0  0  0  0  0  0  0  0  0
    4.7480   -0.0917    0.0000 C   0  0  1  0  0  0  0  0  0  0  0  0
    4.7400   -1.1333    0.0000 C   0  0  2  0  0  0  0  0  0  0  0  0
    6.5241    1.9151    0.0000 C   0  0  2  0  0  0  0  0  0  0  0  0
    5.6580    1.4151    0.0000 C   0  0  0  0  0  0  0  0  0  0  0  0
    7.3901    0.4151    0.0000 C   0  0  1  0  0  0  0  0  0  0  0  0
    6.5401   -1.1264    0.0000 C   0  0  0  0  0  0  0  0  0  0  0  0
    6.1241    0.5151    0.0000 C   0  0  0  0  0  0  0  0  0  0  0  0
    7.3901    1.4151    0.0000 C   0  0  1  0  0  0  0  0  0  0  0  0
    5.6421   -1.6542    0.0000 C   0  0  0  0  0  0  0  0  0  0  0  0
    6.1241    1.3151    0.0000 C   0  0  0  0  0  0  0  0  0  0  0  0
    3.8046   -1.6831    0.0000 C   0  0  2  0  0  0  0  0  0  0  0  0
    3.8212    0.4723    0.0000 C   0  0  0  0  0  0  0  0  0  0  0  0
    4.7557    0.9082    0.0000 C   0  0  0  0  0  0  0  0  0  0  0  0
    2.8650   -1.1406    0.0000 C   0  0  0  0  0  0  0  0  0  0  0  0
    2.8733   -0.0556    0.0000 C   0  0  0  0  0  0  0  0  0  0  0  0
    8.2561    1.9151    0.0000 C   0  0  0  0  0  0  0  0  0  0  0  0
    4.3079   -2.5472    0.0000 C   0  0  0  0  0  0  0  0  0  0  0  0
    3.3079   -2.5510    0.0000 C   0  0  0  0  0  0  0  0  0  0  0  0
    9.1221    3.4151    0.0000 C   0  0  0  0  0  0  0  0  0  0  0  0
    4.9252    0.8458    0.0000 H   0  0  0  0  0  0  0  0  0  0  0  0
    4.7433   -1.9833    0.0000 H   0  0  0  0  0  0  0  0  0  0  0  0
    6.5241    2.7651    0.0000 H   0  0  0  0  0  0  0  0  0  0  0  0
    5.4460    1.9977    0.0000 H   0  0  0  0  0  0  0  0  0  0  0  0
    5.0475    1.3074    0.0000 H   0  0  0  0  0  0  0  0  0  0  0  0
    7.3901   -0.2049    0.0000 H   0  0  0  0  0  0  0  0  0  0  0  0
    6.7582   -1.7068    0.0000 H   0  0  0  0  0  0  0  0  0  0  0  0
    7.1493   -1.0109    0.0000 H   0  0  0  0  0  0  0  0  0  0  0  0
    5.5370    0.7146    0.0000 H   0  0  0  0  0  0  0  0  0  0  0  0
    6.7175    0.6948    0.0000 H   0  0  0  0  0  0  0  0  0  0  0  0
    7.3901    2.0351    0.0000 H   0  0  0  0  0  0  0  0  0  0  0  0
    5.2448   -2.1301    0.0000 H   0  0  0  0  0  0  0  0  0  0  0  0
    6.0430   -2.1270    0.0000 H   0  0  0  0  0  0  0  0  0  0  0  0
    5.7463    1.8067    0.0000 H   0  0  0  0  0  0  0  0  0  0  0  0
    6.7175    1.1354    0.0000 H   0  0  0  0  0  0  0  0  0  0  0  0
    4.2294    0.9390    0.0000 H   0  0  0  0  0  0  0  0  0  0  0  0
    3.4313    0.9544    0.0000 H   0  0  0  0  0  0  0  0  0  0  0  0
    5.3757    0.9034    0.0000 H   0  0  0  0  0  0  0  0  0  0  0  0
    4.7605    1.5282    0.0000 H   0  0  0  0  0  0  0  0  0  0  0  0
    4.1358    0.9130    0.0000 H   0  0  0  0  0  0  0  0  0  0  0  0
    2.2549   -1.0298    0.0000 H   0  0  0  0  0  0  0  0  0  0  0  0
    2.6514   -1.7226    0.0000 H   0  0  0  0  0  0  0  0  0  0  0  0
    2.6688    0.5297    0.0000 H   0  0  0  0  0  0  0  0  0  0  0  0
    2.2616   -0.1570    0.0000 H   0  0  0  0  0  0  0  0  0  0  0  0
    8.4682    1.3325    0.0000 H   0  0  0  0  0  0  0  0  0  0  0  0
    8.8667    2.0228    0.0000 H   0  0  0  0  0  0  0  0  0  0  0  0
    3.7722   -2.8592    0.0000 H   0  0  0  0  0  0  0  0  0  0  0  0
    4.6200   -3.0829    0.0000 H   0  0  0  0  0  0  0  0  0  0  0  0
    4.8436   -2.2351    0.0000 H   0  0  0  0  0  0  0  0  0  0  0  0
    8.7930    0.2251    0.0000 H   0  0  0  0  0  0  0  0  0  0  0  0
    2.0000   -3.0930    0.0000 H   0  0  0  0  0  0  0  0  0  0  0  0
    9.4321    2.8782    0.0000 H   0  0  0  0  0  0  0  0  0  0  0  0
    9.6591    3.7251    0.0000 H   0  0  0  0  0  0  0  0  0  0  0  0
    8.8121    3.9520    0.0000 H   0  0  0  0  0  0  0  0  0  0  0  0
  1  5  2  0  0  0  0
  1 23  1  0  0  0  0
  1 26  1  6  0  0  0
 12  2  1  1  0  0  0
  2 56  1  0  0  0  0
  3 25  1  0  0  0  0
  3 57  1  0  0  0  0
  4 25  2  0  0  0  0
  6  7  1  0  0  0  0
  6 12  1  0  0  0  0
  6 13  1  6  0  0  0
  6 14  1  0  0  0  0
  7  8  1  0  0  0  0
  7 11  1  0  0  0  0
  7 27  1  0  0  0  0
  8  9  1  0  0  0  0
  8 19  1  0  0  0  0
  8 20  1  6  0  0  0
  9 16  1  0  0  0  0
  9 18  1  0  0  0  0
  9 28  1  1  0  0  0
 10 11  1  0  0  0  0
 10 15  1  0  0  0  0
 10 17  1  0  0  0  0
 10 29  1  1  0  0  0
 11 30  1  0  0  0  0
 11 31  1  0  0  0  0
 12 15  1  0  0  0  0
 12 32  1  0  0  0  0
 13 16  1  0  0  0  0
 13 33  1  0  0  0  0
 13 34  1  0  0  0  0
 14 17  1  0  0  0  0
 14 35  1  0  0  0  0
 14 36  1  0  0  0  0
 15 23  1  6  0  0  0
 15 37  1  0  0  0  0
 16 38  1  0  0  0  0
 16 39  1  0  0  0  0
 17 40  1  0  0  0  0
 17 41  1  0  0  0  0
 18 21  1  0  0  0  0
 18 24  1  1  0  0  0
 18 25  1  0  0  0  0
 19 22  1  0  0  0  0
 19 42  1  0  0  0  0
 19 43  1  0  0  0  0
 20 44  1  0  0  0  0
 20 45  1  0  0  0  0
 20 46  1  0  0  0  0
 21 22  1  0  0  0  0
 21 47  1  0  0  0  0
 21 48  1  0  0  0  0
 22 49  1  0  0  0  0
 22 50  1  0  0  0  0
 23 51  1  0  0  0  0
 23 52  1  0  0  0  0
 24 53  1  0  0  0  0
 24 54  1  0  0  0  0
 24 55  1  0  0  0  0
 26 58  1  0  0  0  0
 26 59  1  0  0  0  0
 26 60  1  0  0  0  0
M  END
> <PUBCHEM_COMPOUND_CID>
9842975

> <PUBCHEM_COMPOUND_CANONICALIZED>
1

> <PUBCHEM_CACTVS_COMPLEXITY>
636

> <PUBCHEM_CACTVS_HBOND_ACCEPTOR>
5

> <PUBCHEM_CACTVS_HBOND_DONOR>
2

> <PUBCHEM_CACTVS_ROTATABLE_BOND>
3

> <PUBCHEM_CACTVS_SUBSKEYS>
AAADcfB4OABAAAAAAAAAAAAAAAAAAAAAAAAwYMGDAAAAAADAAAAAGgQACAAADxSkwAKCCAAAAgoIAACQCEBAAAAAABAAAAEAAAAAEBIgAAAAQAAEAAAAAAGIyPCPgAAAAAAAAACAAAYAADAAAAAAAAAAAA==

> <PUBCHEM_IUPAC_INCHI>
InChI=1S/C21H34O4S/c1-19-7-4-8-20(2,18(23)24)15(19)6-10-21-9-5-13(11-16(19)21)14(17(21)22)12-26(3)25/h13-17,22H,4-12H2,1-3H3,(H,23,24)/t13-,14+,15+,16?,17-,19-,20-,21+,26-/m1/s1

> <PUBCHEM_IUPAC_INCHIKEY>
RSTMEZAVUUMLEO-QHFWVSTQSA-N

> <PUBCHEM_XLOGP3_AA>
3.3

> <PUBCHEM_EXACT_MASS>
382.217781

> <PUBCHEM_MOLECULAR_FORMULA>
C21H34O4S

> <PUBCHEM_MOLECULAR_WEIGHT>
382.55726

> <PUBCHEM_OPENEYE_CAN_SMILES>
CC12CCCC(C1CCC34C2CC(CC3)C(C4O)CS(=O)C)(C)C(=O)O

> <PUBCHEM_OPENEYE_ISO_SMILES>
C[C@@]12CCC[C@@]([C@H]1CC[C@]34C2C[C@@H](CC3)[C@@H]([C@H]4O)C[S@](=O)C)(C)C(=O)O

> <PUBCHEM_CACTVS_TPSA>
93.8

> <PUBCHEM_MONOISOTOPIC_WEIGHT>
382.217781

> <PUBCHEM_TOTAL_CHARGE>
0

> <PUBCHEM_HEAVY_ATOM_COUNT>
26

> <PUBCHEM_ATOM_DEF_STEREO_COUNT>
8

> <PUBCHEM_ATOM_UDEF_STEREO_COUNT>
1

> <PUBCHEM_BOND_DEF_STEREO_COUNT>
0

> <PUBCHEM_BOND_UDEF_STEREO_COUNT>
0

> <PUBCHEM_ISOTOPIC_ATOM_COUNT>
0

> <PUBCHEM_COMPONENT_COUNT>
1

> <PUBCHEM_CACTVS_TAUTO_COUNT>
1

> <PUBCHEM_COORDINATE_TYPE>
1
5
255

> <PUBCHEM_BONDANNOTATIONS>
1  26  6
10  29  5
15  23  6
18  24  5
12  2  5
6  13  6
7  27  3
8  20  6
9  28  5

$$$$
