71333508
  -OEChem-01271411092D

 34 35  0     1  0  0  0  0  0999 V2000
    5.0298   -2.0704    0.0000 O   0  0  0  0  0  0  0  0  0  0  0  0
    2.4608   -1.7614    0.0000 O   0  0  0  0  0  0  0  0  0  0  0  0
    3.1330   -3.8304    0.0000 O   0  0  0  0  0  0  0  0  0  0  0  0
    6.3031   -3.7259    0.0000 O   0  0  0  0  0  0  0  0  0  0  0  0
    6.3031    1.7607    0.0000 O   0  0  0  0  0  0  0  0  0  0  0  0
    4.2208   -0.4826    0.0000 N   0  0  0  0  0  0  0  0  0  0  0  0
    3.7208    1.0562    0.0000 N   0  0  0  0  0  0  0  0  0  0  0  0
    5.9809   -0.2038    0.0000 N   0  0  0  0  0  0  0  0  0  0  0  0
    5.4897    3.5878    0.0000 N   0  3  0  0  0  0  0  0  0  0  0  0
    6.0774    4.3968    0.0000 N   0  0  0  0  0  0  0  0  0  0  0  0
    3.4118   -2.0704    0.0000 C   0  0  3  0  0  0  0  0  0  0  0  0
    4.2208   -1.4826    0.0000 C   0  0  3  0  0  0  0  0  0  0  0  0
    3.7208   -3.0214    0.0000 C   0  0  3  0  0  0  0  0  0  0  0  0
    4.7208   -3.0214    0.0000 C   0  0  3  0  0  0  0  0  0  0  0  0
    5.3086   -3.8304    0.0000 C   0  0  0  0  0  0  0  0  0  0  0  0
    5.0298    0.1052    0.0000 C   0  0  0  0  0  0  0  0  0  0  0  0
    3.4118    0.1052    0.0000 C   0  0  0  0  0  0  0  0  0  0  0  0
    4.7208    1.0562    0.0000 C   0  0  0  0  0  0  0  0  0  0  0  0
    5.3086    1.8653    0.0000 C   0  0  0  0  0  0  0  0  0  0  0  0
    4.9019    2.7788    0.0000 C   0  0  0  0  0  0  0  0  0  0  0  0
    2.8108   -2.6714    0.0000 H   0  0  0  0  0  0  0  0  0  0  0  0
    3.4635   -1.0967    0.0000 H   0  0  0  0  0  0  0  0  0  0  0  0
    4.1067   -3.7788    0.0000 H   0  0  0  0  0  0  0  0  0  0  0  0
    5.5604   -2.8885    0.0000 H   0  0  0  0  0  0  0  0  0  0  0  0
    4.7514   -4.1022    0.0000 H   0  0  0  0  0  0  0  0  0  0  0  0
    5.4795   -4.4264    0.0000 H   0  0  0  0  0  0  0  0  0  0  0  0
    2.0000   -2.1762    0.0000 H   0  0  0  0  0  0  0  0  0  0  0  0
    3.3852   -4.3968    0.0000 H   0  0  0  0  0  0  0  0  0  0  0  0
    2.8222   -0.0864    0.0000 H   0  0  0  0  0  0  0  0  0  0  0  0
    6.6676   -4.2275    0.0000 H   0  0  0  0  0  0  0  0  0  0  0  0
    6.4416    0.2110    0.0000 H   0  0  0  0  0  0  0  0  0  0  0  0
    6.1098   -0.8103    0.0000 H   0  0  0  0  0  0  0  0  0  0  0  0
    4.2853    2.8436    0.0000 H   0  0  0  0  0  0  0  0  0  0  0  0
    6.6676    2.2623    0.0000 H   0  0  0  0  0  0  0  0  0  0  0  0
  1 12  1  0  0  0  0
  1 14  1  0  0  0  0
  2 11  1  0  0  0  0
  2 27  1  0  0  0  0
  3 13  1  0  0  0  0
  3 28  1  0  0  0  0
  4 15  1  0  0  0  0
  4 30  1  0  0  0  0
  5 19  1  0  0  0  0
  5 34  1  0  0  0  0
  6 12  1  0  0  0  0
  6 16  1  0  0  0  0
  6 17  1  0  0  0  0
  7 17  2  0  0  0  0
  7 18  1  0  0  0  0
  8 16  1  0  0  0  0
  8 31  1  0  0  0  0
  8 32  1  0  0  0  0
  9 10  3  0  0  0  0
  9 20  1  0  0  0  0
 11 12  1  0  0  0  0
 11 13  1  0  0  0  0
 11 21  1  0  0  0  0
 12 22  1  0  0  0  0
 13 14  1  0  0  0  0
 13 23  1  0  0  0  0
 14 15  1  0  0  0  0
 14 24  1  0  0  0  0
 15 25  1  0  0  0  0
 15 26  1  0  0  0  0
 16 18  2  0  0  0  0
 17 29  1  0  0  0  0
 18 19  1  0  0  0  0
 19 20  2  3  0  0  0
 20 33  1  0  0  0  0
M  CHG  1   9   1
M  END
> <PUBCHEM_COMPOUND_CID>
71333508

> <PUBCHEM_COMPOUND_CANONICALIZED>
1

> <PUBCHEM_CACTVS_COMPLEXITY>
437

> <PUBCHEM_CACTVS_HBOND_ACCEPTOR>
8

> <PUBCHEM_CACTVS_HBOND_DONOR>
5

> <PUBCHEM_CACTVS_ROTATABLE_BOND>
3

> <PUBCHEM_CACTVS_SUBSKEYS>
AAADccBzuAAAAAAAAAAAAAAAAAAAAWJAAAAAAAAAAAAAAAABgAAAHgAYCAAACBzhlgYFsBdMFgCgAQZnZASCgC0xEKAB0AAoWBiLXAJAiAAeQAAPAALTECDwMAIAAAAAAAAAAAAAAAAAAAAAAAAAAAAAAA==

> <PUBCHEM_IUPAC_OPENEYE_NAME>
2-[5-amino-1-[3,4-dihydroxy-5-(hydroxymethyl)tetrahydrofuran-2-yl]imidazol-4-yl]-2-hydroxy-ethenediazonium

> <PUBCHEM_IUPAC_CAS_NAME>
2-[5-amino-1-[3,4-dihydroxy-5-(hydroxymethyl)-2-oxolanyl]-4-imidazolyl]-2-hydroxyethenediazonium

> <PUBCHEM_IUPAC_NAME>
2-[5-amino-1-[3,4-dihydroxy-5-(hydroxymethyl)oxolan-2-yl]imidazol-4-yl]-2-hydroxyethenediazonium

> <PUBCHEM_IUPAC_SYSTEMATIC_NAME>
2-[5-azanyl-1-[5-(hydroxymethyl)-3,4-bis(oxidanyl)oxolan-2-yl]imidazol-4-yl]-2-oxidanyl-ethenediazonium

> <PUBCHEM_IUPAC_TRADITIONAL_NAME>
2-[5-amino-1-(3,4-dihydroxy-5-methylol-tetrahydrofuran-2-yl)imidazol-4-yl]-2-hydroxy-ethenediazonium

> <PUBCHEM_IUPAC_INCHI>
InChI=1S/C10H13N5O5/c11-9-6(4(17)1-14-12)13-3-15(9)10-8(19)7(18)5(2-16)20-10/h1,3,5,7-8,10,16,18-19H,2,11H2/p+1

> <PUBCHEM_IUPAC_INCHIKEY>
IQHMIXCHRCLUID-UHFFFAOYSA-O

> <PUBCHEM_EXACT_MASS>
284.099494

> <PUBCHEM_MOLECULAR_FORMULA>
C10H14N5O5+

> <PUBCHEM_MOLECULAR_WEIGHT>
284.24866

> <PUBCHEM_OPENEYE_CAN_SMILES>
C1=NC(=C(N1C2C(C(C(O2)CO)O)O)N)C(=C[N+]#N)O

> <PUBCHEM_OPENEYE_ISO_SMILES>
C1=NC(=C(N1C2C(C(C(O2)CO)O)O)N)C(=C[N+]#N)O

> <PUBCHEM_CACTVS_TPSA>
162

> <PUBCHEM_MONOISOTOPIC_WEIGHT>
284.099494

> <PUBCHEM_TOTAL_CHARGE>
1

> <PUBCHEM_HEAVY_ATOM_COUNT>
20

> <PUBCHEM_ATOM_DEF_STEREO_COUNT>
0

> <PUBCHEM_ATOM_UDEF_STEREO_COUNT>
4

> <PUBCHEM_BOND_DEF_STEREO_COUNT>
0

> <PUBCHEM_BOND_UDEF_STEREO_COUNT>
1

> <PUBCHEM_ISOTOPIC_ATOM_COUNT>
0

> <PUBCHEM_COMPONENT_COUNT>
1

> <PUBCHEM_CACTVS_TAUTO_COUNT>
5

> <PUBCHEM_COORDINATE_TYPE>
1
5
255

> <PUBCHEM_BONDANNOTATIONS>
11  21  3
12  22  3
13  23  3
14  24  3
16  18  8
19  20  1
6  16  8
6  17  8
7  17  8
7  18  8

$$$$
71333507
  -OEChem-01271411092D

 33 34  0     1  0  0  0  0  0999 V2000
    5.0298   -2.0704    0.0000 O   0  0  0  0  0  0  0  0  0  0  0  0
    2.4608   -1.7614    0.0000 O   0  0  0  0  0  0  0  0  0  0  0  0
    3.1330   -3.8304    0.0000 O   0  0  0  0  0  0  0  0  0  0  0  0
    6.3031   -3.7259    0.0000 O   0  0  0  0  0  0  0  0  0  0  0  0
    6.3031    1.7607    0.0000 O   0  5  0  0  0  0  0  0  0  0  0  0
    4.2208   -0.4826    0.0000 N   0  0  0  0  0  0  0  0  0  0  0  0
    3.7208    1.0562    0.0000 N   0  0  0  0  0  0  0  0  0  0  0  0
    5.9809   -0.2038    0.0000 N   0  0  0  0  0  0  0  0  0  0  0  0
    5.4897    3.5878    0.0000 N   0  3  0  0  0  0  0  0  0  0  0  0
    6.0774    4.3968    0.0000 N   0  0  0  0  0  0  0  0  0  0  0  0
    3.4118   -2.0704    0.0000 C   0  0  3  0  0  0  0  0  0  0  0  0
    4.2208   -1.4826    0.0000 C   0  0  3  0  0  0  0  0  0  0  0  0
    3.7208   -3.0214    0.0000 C   0  0  3  0  0  0  0  0  0  0  0  0
    4.7208   -3.0214    0.0000 C   0  0  3  0  0  0  0  0  0  0  0  0
    5.3086   -3.8304    0.0000 C   0  0  0  0  0  0  0  0  0  0  0  0
    5.0298    0.1052    0.0000 C   0  0  0  0  0  0  0  0  0  0  0  0
    3.4118    0.1052    0.0000 C   0  0  0  0  0  0  0  0  0  0  0  0
    4.7208    1.0562    0.0000 C   0  0  0  0  0  0  0  0  0  0  0  0
    5.3086    1.8653    0.0000 C   0  0  0  0  0  0  0  0  0  0  0  0
    4.9019    2.7788    0.0000 C   0  0  0  0  0  0  0  0  0  0  0  0
    2.9734   -2.5088    0.0000 H   0  0  0  0  0  0  0  0  0  0  0  0
    3.6684   -1.2011    0.0000 H   0  0  0  0  0  0  0  0  0  0  0  0
    4.0023   -3.5739    0.0000 H   0  0  0  0  0  0  0  0  0  0  0  0
    5.3332   -2.9244    0.0000 H   0  0  0  0  0  0  0  0  0  0  0  0
    4.7514   -4.1022    0.0000 H   0  0  0  0  0  0  0  0  0  0  0  0
    5.4795   -4.4264    0.0000 H   0  0  0  0  0  0  0  0  0  0  0  0
    2.0000   -2.1762    0.0000 H   0  0  0  0  0  0  0  0  0  0  0  0
    3.3852   -4.3968    0.0000 H   0  0  0  0  0  0  0  0  0  0  0  0
    2.8222   -0.0864    0.0000 H   0  0  0  0  0  0  0  0  0  0  0  0
    6.6676   -4.2275    0.0000 H   0  0  0  0  0  0  0  0  0  0  0  0
    6.4416    0.2110    0.0000 H   0  0  0  0  0  0  0  0  0  0  0  0
    6.1098   -0.8103    0.0000 H   0  0  0  0  0  0  0  0  0  0  0  0
    4.2853    2.8436    0.0000 H   0  0  0  0  0  0  0  0  0  0  0  0
  1 12  1  0  0  0  0
  1 14  1  0  0  0  0
  2 11  1  0  0  0  0
  2 27  1  0  0  0  0
  3 13  1  0  0  0  0
  3 28  1  0  0  0  0
  4 15  1  0  0  0  0
  4 30  1  0  0  0  0
  5 19  1  0  0  0  0
  6 12  1  0  0  0  0
  6 16  1  0  0  0  0
  6 17  1  0  0  0  0
  7 17  2  0  0  0  0
  7 18  1  0  0  0  0
  8 16  1  0  0  0  0
  8 31  1  0  0  0  0
  8 32  1  0  0  0  0
  9 10  3  0  0  0  0
  9 20  1  0  0  0  0
 11 12  1  0  0  0  0
 11 13  1  0  0  0  0
 11 21  1  0  0  0  0
 12 22  1  0  0  0  0
 13 14  1  0  0  0  0
 13 23  1  0  0  0  0
 14 15  1  0  0  0  0
 14 24  1  0  0  0  0
 15 25  1  0  0  0  0
 15 26  1  0  0  0  0
 16 18  2  0  0  0  0
 17 29  1  0  0  0  0
 18 19  1  0  0  0  0
 19 20  2  3  0  0  0
 20 33  1  0  0  0  0
M  CHG  2   5  -1   9   1
M  END
> <PUBCHEM_COMPOUND_CID>
71333507

> <PUBCHEM_COMPOUND_CANONICALIZED>
1

> <PUBCHEM_CACTVS_COMPLEXITY>
437

> <PUBCHEM_CACTVS_HBOND_ACCEPTOR>
8

> <PUBCHEM_CACTVS_HBOND_DONOR>
4

> <PUBCHEM_CACTVS_ROTATABLE_BOND>
3

> <PUBCHEM_CACTVS_SUBSKEYS>
AAADccBzuAAAAAAAAAAAAAAAAAAAAWJAAAAAAAAAAAAAAAABgAAAHgAYCAAACBzhlgYFsBdMFgCgAQZnZASCgC0xEKAB0AAoWBiLXAJAiAAeQAAPAALTACDwMAIAAAAAAAAAAAAAAAAAAAAAAAAAAAAAAA==

> <PUBCHEM_IUPAC_OPENEYE_NAME>
1-[5-amino-1-[3,4-dihydroxy-5-(hydroxymethyl)tetrahydrofuran-2-yl]imidazol-4-yl]-2-diazonio-ethenolate

> <PUBCHEM_IUPAC_CAS_NAME>
1-[5-amino-1-[3,4-dihydroxy-5-(hydroxymethyl)-2-oxolanyl]-4-imidazolyl]-2-diazonioethenolate

> <PUBCHEM_IUPAC_NAME>
1-[5-amino-1-[3,4-dihydroxy-5-(hydroxymethyl)oxolan-2-yl]imidazol-4-yl]-2-diazonioethenolate

> <PUBCHEM_IUPAC_SYSTEMATIC_NAME>
1-[5-azanyl-1-[5-(hydroxymethyl)-3,4-bis(oxidanyl)oxolan-2-yl]imidazol-4-yl]-2-diazonio-ethenolate

> <PUBCHEM_IUPAC_TRADITIONAL_NAME>
1-[5-amino-1-(3,4-dihydroxy-5-methylol-tetrahydrofuran-2-yl)imidazol-4-yl]-2-diazonio-ethenolate

> <PUBCHEM_IUPAC_INCHI>
InChI=1S/C10H13N5O5/c11-9-6(4(17)1-14-12)13-3-15(9)10-8(19)7(18)5(2-16)20-10/h1,3,5,7-8,10,16,18-19H,2,11H2

> <PUBCHEM_IUPAC_INCHIKEY>
IQHMIXCHRCLUID-UHFFFAOYSA-N

> <PUBCHEM_EXACT_MASS>
283.091669

> <PUBCHEM_MOLECULAR_FORMULA>
C10H13N5O5

> <PUBCHEM_MOLECULAR_WEIGHT>
283.24072

> <PUBCHEM_OPENEYE_CAN_SMILES>
C1=NC(=C(N1C2C(C(C(O2)CO)O)O)N)C(=C[N+]#N)[O-]

> <PUBCHEM_OPENEYE_ISO_SMILES>
C1=NC(=C(N1C2C(C(C(O2)CO)O)O)N)C(=C[N+]#N)[O-]

> <PUBCHEM_CACTVS_TPSA>
165

> <PUBCHEM_MONOISOTOPIC_WEIGHT>
283.091669

> <PUBCHEM_TOTAL_CHARGE>
0

> <PUBCHEM_HEAVY_ATOM_COUNT>
20

> <PUBCHEM_ATOM_DEF_STEREO_COUNT>
0

> <PUBCHEM_ATOM_UDEF_STEREO_COUNT>
4

> <PUBCHEM_BOND_DEF_STEREO_COUNT>
0

> <PUBCHEM_BOND_UDEF_STEREO_COUNT>
1

> <PUBCHEM_ISOTOPIC_ATOM_COUNT>
0

> <PUBCHEM_COMPONENT_COUNT>
1

> <PUBCHEM_CACTVS_TAUTO_COUNT>
1

> <PUBCHEM_COORDINATE_TYPE>
1
5
255

> <PUBCHEM_BONDANNOTATIONS>
14  15  3
16  18  8
19  20  1
11  2  3
13  3  3
12  6  3
6  16  8
6  17  8
7  17  8
7  18  8

$$$$
