70138263
  -OEChem-01271410472D

 26 27  0     0  0  0  0  0  0999 V2000
    6.2302    1.6545    0.0000 N   0  0  0  0  0  0  0  0  0  0  0  0
    4.9641    1.8777    0.0000 N   0  0  0  0  0  0  0  0  0  0  0  0
    5.4641   -0.9883    0.0000 N   0  0  0  0  0  0  0  0  0  0  0  0
    3.7320   -1.9883    0.0000 N   0  0  0  0  0  0  0  0  0  0  0  0
    5.4641    1.0117    0.0000 C   0  0  0  0  0  0  0  0  0  0  0  0
    4.5981    0.5117    0.0000 C   0  0  0  0  0  0  0  0  0  0  0  0
    4.5981   -0.4883    0.0000 C   0  0  0  0  0  0  0  0  0  0  0  0
    6.3301    0.5117    0.0000 C   0  0  0  0  0  0  0  0  0  0  0  0
    3.7320   -0.9883    0.0000 C   0  0  0  0  0  0  0  0  0  0  0  0
    6.3301   -0.4883    0.0000 C   0  0  0  0  0  0  0  0  0  0  0  0
    2.8660   -0.4883    0.0000 C   0  0  0  0  0  0  0  0  0  0  0  0
    2.0000   -0.9883    0.0000 C   0  0  0  0  0  0  0  0  0  0  0  0
    2.8660   -2.4883    0.0000 C   0  0  0  0  0  0  0  0  0  0  0  0
    2.0000   -1.9883    0.0000 C   0  0  0  0  0  0  0  0  0  0  0  0
    4.3860    1.0943    0.0000 H   0  0  0  0  0  0  0  0  0  0  0  0
    3.9875    0.4040    0.0000 H   0  0  0  0  0  0  0  0  0  0  0  0
    6.8671    0.8217    0.0000 H   0  0  0  0  0  0  0  0  0  0  0  0
    6.8128    1.4424    0.0000 H   0  0  0  0  0  0  0  0  0  0  0  0
    6.1225    2.2651    0.0000 H   0  0  0  0  0  0  0  0  0  0  0  0
    4.3441    1.8777    0.0000 H   0  0  0  0  0  0  0  0  0  0  0  0
    5.0718    2.4883    0.0000 H   0  0  0  0  0  0  0  0  0  0  0  0
    6.8671   -0.7983    0.0000 H   0  0  0  0  0  0  0  0  0  0  0  0
    2.8660    0.1317    0.0000 H   0  0  0  0  0  0  0  0  0  0  0  0
    1.4631   -0.6783    0.0000 H   0  0  0  0  0  0  0  0  0  0  0  0
    2.8660   -3.1083    0.0000 H   0  0  0  0  0  0  0  0  0  0  0  0
    1.4631   -2.2983    0.0000 H   0  0  0  0  0  0  0  0  0  0  0  0
  1  5  1  0  0  0  0
  1 18  1  0  0  0  0
  1 19  1  0  0  0  0
  2  5  1  0  0  0  0
  2 20  1  0  0  0  0
  2 21  1  0  0  0  0
  3  7  2  0  0  0  0
  3 10  1  0  0  0  0
  4  9  1  0  0  0  0
  4 13  2  0  0  0  0
  5  6  1  0  0  0  0
  5  8  1  0  0  0  0
  6  7  1  0  0  0  0
  6 15  1  0  0  0  0
  6 16  1  0  0  0  0
  7  9  1  0  0  0  0
  8 10  2  0  0  0  0
  8 17  1  0  0  0  0
  9 11  2  0  0  0  0
 10 22  1  0  0  0  0
 11 12  1  0  0  0  0
 11 23  1  0  0  0  0
 12 14  2  0  0  0  0
 12 24  1  0  0  0  0
 13 14  1  0  0  0  0
 13 25  1  0  0  0  0
 14 26  1  0  0  0  0
M  END
> <PUBCHEM_COMPOUND_CID>
70138263

> <PUBCHEM_COMPOUND_CANONICALIZED>
1

> <PUBCHEM_CACTVS_COMPLEXITY>
267

> <PUBCHEM_CACTVS_HBOND_ACCEPTOR>
4

> <PUBCHEM_CACTVS_HBOND_DONOR>
2

> <PUBCHEM_CACTVS_ROTATABLE_BOND>
1

> <PUBCHEM_CACTVS_SUBSKEYS>
AAADccBzgAAAAAAAAAAAAAAAAAAAAAAAAAAsQAAAAAAAAAABgAAAHAAQAAAACAjBFgQ9gJJIEACgATRnRACCgCAxAiAI2CA4ZJgIIOLAkZGEIAhgkADIyAcQgIAAAAAAAAAAAAAAAAAAAAAAAAAAAAAAAA==

> <PUBCHEM_IUPAC_OPENEYE_NAME>
2-(2-pyridyl)-3H-pyridine-4,4-diamine

> <PUBCHEM_IUPAC_CAS_NAME>
2-(2-pyridinyl)-3H-pyridine-4,4-diamine

> <PUBCHEM_IUPAC_NAME>
2-pyridin-2-yl-3H-pyridine-4,4-diamine

> <PUBCHEM_IUPAC_SYSTEMATIC_NAME>
2-pyridin-2-yl-3H-pyridine-4,4-diamine

> <PUBCHEM_IUPAC_TRADITIONAL_NAME>
[4-amino-2-(2-pyridyl)-3H-pyridin-4-yl]amine

> <PUBCHEM_IUPAC_INCHI>
InChI=1S/C10H12N4/c11-10(12)4-6-14-9(7-10)8-3-1-2-5-13-8/h1-6H,7,11-12H2

> <PUBCHEM_IUPAC_INCHIKEY>
ZEXMUVLHEXUTRN-UHFFFAOYSA-N

> <PUBCHEM_XLOGP3_AA>
-1

> <PUBCHEM_EXACT_MASS>
188.106196

> <PUBCHEM_MOLECULAR_FORMULA>
C10H12N4

> <PUBCHEM_MOLECULAR_WEIGHT>
188.22908

> <PUBCHEM_OPENEYE_CAN_SMILES>
C1C(=NC=CC1(N)N)C2=CC=CC=N2

> <PUBCHEM_OPENEYE_ISO_SMILES>
C1C(=NC=CC1(N)N)C2=CC=CC=N2

> <PUBCHEM_CACTVS_TPSA>
77.3

> <PUBCHEM_MONOISOTOPIC_WEIGHT>
188.106196

> <PUBCHEM_TOTAL_CHARGE>
0

> <PUBCHEM_HEAVY_ATOM_COUNT>
14

> <PUBCHEM_ATOM_DEF_STEREO_COUNT>
0

> <PUBCHEM_ATOM_UDEF_STEREO_COUNT>
0

> <PUBCHEM_BOND_DEF_STEREO_COUNT>
0

> <PUBCHEM_BOND_UDEF_STEREO_COUNT>
0

> <PUBCHEM_ISOTOPIC_ATOM_COUNT>
0

> <PUBCHEM_COMPONENT_COUNT>
1

> <PUBCHEM_CACTVS_TAUTO_COUNT>
1

> <PUBCHEM_COORDINATE_TYPE>
1
5
255

> <PUBCHEM_BONDANNOTATIONS>
11  12  8
12  14  8
13  14  8
4  13  8
4  9  8
9  11  8

$$$$
70138262
  -OEChem-01271410472D

 26 27  0     0  0  0  0  0  0999 V2000
    5.4641   -0.9883    0.0000 N   0  0  0  0  0  0  0  0  0  0  0  0
    6.2302    1.6545    0.0000 N   0  0  0  0  0  0  0  0  0  0  0  0
    4.9641    1.8777    0.0000 N   0  0  0  0  0  0  0  0  0  0  0  0
    3.7320   -1.9883    0.0000 N   0  0  0  0  0  0  0  0  0  0  0  0
    5.4641    1.0117    0.0000 C   0  0  0  0  0  0  0  0  0  0  0  0
    4.5981    0.5117    0.0000 C   0  0  0  0  0  0  0  0  0  0  0  0
    4.5981   -0.4883    0.0000 C   0  0  0  0  0  0  0  0  0  0  0  0
    6.3301    0.5117    0.0000 C   0  0  0  0  0  0  0  0  0  0  0  0
    6.3301   -0.4883    0.0000 C   0  0  0  0  0  0  0  0  0  0  0  0
    3.7320   -0.9883    0.0000 C   0  0  0  0  0  0  0  0  0  0  0  0
    2.8660   -0.4883    0.0000 C   0  0  0  0  0  0  0  0  0  0  0  0
    2.0000   -0.9883    0.0000 C   0  0  0  0  0  0  0  0  0  0  0  0
    2.8660   -2.4883    0.0000 C   0  0  0  0  0  0  0  0  0  0  0  0
    2.0000   -1.9883    0.0000 C   0  0  0  0  0  0  0  0  0  0  0  0
    4.0611    0.8217    0.0000 H   0  0  0  0  0  0  0  0  0  0  0  0
    6.8671    0.8217    0.0000 H   0  0  0  0  0  0  0  0  0  0  0  0
    5.4641   -1.6083    0.0000 H   0  0  0  0  0  0  0  0  0  0  0  0
    6.8671   -0.7983    0.0000 H   0  0  0  0  0  0  0  0  0  0  0  0
    6.8128    1.4424    0.0000 H   0  0  0  0  0  0  0  0  0  0  0  0
    6.1225    2.2651    0.0000 H   0  0  0  0  0  0  0  0  0  0  0  0
    4.3441    1.8777    0.0000 H   0  0  0  0  0  0  0  0  0  0  0  0
    5.0718    2.4883    0.0000 H   0  0  0  0  0  0  0  0  0  0  0  0
    2.8660    0.1317    0.0000 H   0  0  0  0  0  0  0  0  0  0  0  0
    1.4631   -0.6783    0.0000 H   0  0  0  0  0  0  0  0  0  0  0  0
    2.8660   -3.1083    0.0000 H   0  0  0  0  0  0  0  0  0  0  0  0
    1.4631   -2.2983    0.0000 H   0  0  0  0  0  0  0  0  0  0  0  0
  1  7  1  0  0  0  0
  1  9  1  0  0  0  0
  1 17  1  0  0  0  0
  2  5  1  0  0  0  0
  2 19  1  0  0  0  0
  2 20  1  0  0  0  0
  3  5  1  0  0  0  0
  3 21  1  0  0  0  0
  3 22  1  0  0  0  0
  4 10  1  0  0  0  0
  4 13  2  0  0  0  0
  5  6  1  0  0  0  0
  5  8  1  0  0  0  0
  6  7  2  0  0  0  0
  6 15  1  0  0  0  0
  7 10  1  0  0  0  0
  8  9  2  0  0  0  0
  8 16  1  0  0  0  0
  9 18  1  0  0  0  0
 10 11  2  0  0  0  0
 11 12  1  0  0  0  0
 11 23  1  0  0  0  0
 12 14  2  0  0  0  0
 12 24  1  0  0  0  0
 13 14  1  0  0  0  0
 13 25  1  0  0  0  0
 14 26  1  0  0  0  0
M  END
> <PUBCHEM_COMPOUND_CID>
70138262

> <PUBCHEM_COMPOUND_CANONICALIZED>
1

> <PUBCHEM_CACTVS_COMPLEXITY>
267

> <PUBCHEM_CACTVS_HBOND_ACCEPTOR>
4

> <PUBCHEM_CACTVS_HBOND_DONOR>
3

> <PUBCHEM_CACTVS_ROTATABLE_BOND>
1

> <PUBCHEM_CACTVS_SUBSKEYS>
AAADccBzgAAAAAAAAAAAAAAAAAAAAAAAAAAsQAAAAAAAAAABgAAAHAAQAAAACAjBFgQ9gJLIEACgATRnRACCgCAxAiAI2KA4ZJgIYOLAkZGUIAhgkADIyAcQAAAAAAAAAAAAAAAAAAAAAAAAAAAAAAAAAA==

> <PUBCHEM_IUPAC_OPENEYE_NAME>
2-(2-pyridyl)-1H-pyridine-4,4-diamine

> <PUBCHEM_IUPAC_CAS_NAME>
2-(2-pyridinyl)-1H-pyridine-4,4-diamine

> <PUBCHEM_IUPAC_NAME>
2-pyridin-2-yl-1H-pyridine-4,4-diamine

> <PUBCHEM_IUPAC_SYSTEMATIC_NAME>
2-pyridin-2-yl-1H-pyridine-4,4-diamine

> <PUBCHEM_IUPAC_TRADITIONAL_NAME>
[4-amino-2-(2-pyridyl)-1H-pyridin-4-yl]amine

> <PUBCHEM_IUPAC_INCHI>
InChI=1S/C10H12N4/c11-10(12)4-6-14-9(7-10)8-3-1-2-5-13-8/h1-7,14H,11-12H2

> <PUBCHEM_IUPAC_INCHIKEY>
OAEQFBYMOVTKLV-UHFFFAOYSA-N

> <PUBCHEM_XLOGP3_AA>
-0.6

> <PUBCHEM_EXACT_MASS>
188.106196

> <PUBCHEM_MOLECULAR_FORMULA>
C10H12N4

> <PUBCHEM_MOLECULAR_WEIGHT>
188.22908

> <PUBCHEM_OPENEYE_CAN_SMILES>
C1=CC=NC(=C1)C2=CC(C=CN2)(N)N

> <PUBCHEM_OPENEYE_ISO_SMILES>
C1=CC=NC(=C1)C2=CC(C=CN2)(N)N

> <PUBCHEM_CACTVS_TPSA>
77

> <PUBCHEM_MONOISOTOPIC_WEIGHT>
188.106196

> <PUBCHEM_TOTAL_CHARGE>
0

> <PUBCHEM_HEAVY_ATOM_COUNT>
14

> <PUBCHEM_ATOM_DEF_STEREO_COUNT>
0

> <PUBCHEM_ATOM_UDEF_STEREO_COUNT>
0

> <PUBCHEM_BOND_DEF_STEREO_COUNT>
0

> <PUBCHEM_BOND_UDEF_STEREO_COUNT>
0

> <PUBCHEM_ISOTOPIC_ATOM_COUNT>
0

> <PUBCHEM_COMPONENT_COUNT>
1

> <PUBCHEM_CACTVS_TAUTO_COUNT>
1

> <PUBCHEM_COORDINATE_TYPE>
1
5
255

> <PUBCHEM_BONDANNOTATIONS>
10  11  8
11  12  8
12  14  8
13  14  8
4  10  8
4  13  8

$$$$
