Levocabastine
  Marvin  08221118172D          

 32 35  0  0  0  0            999 V2000
    6.6901   -1.8801    0.0000 C   0  0  2  0  0  0  0  0  0  0  0  0
    7.2225   -2.5589    0.0000 C   0  0  0  0  0  0  0  0  0  0  0  0
    6.3006   -1.1803    0.0000 C   0  0  1  0  0  0  0  0  0  0  0  0
    6.3258   -2.5267    0.0000 C   0  0  0  0  0  0  0  0  0  0  0  0
    7.4508   -1.2518    0.0000 C   0  0  0  0  0  0  0  0  0  0  0  0
    7.9790   -2.5519    0.0000 C   0  0  0  0  0  0  0  0  0  0  0  0
    6.7616   -3.2587    0.0000 C   0  0  0  0  0  0  0  0  0  0  0  0
    5.4257   -1.1803    0.0000 C   0  0  0  0  0  0  0  0  0  0  0  0
    6.7189   -0.5269    0.0000 C   0  0  0  0  0  0  0  0  0  0  0  0
    5.4797   -2.5267    0.0000 C   0  0  0  0  0  0  0  0  0  0  0  0
    7.8648   -0.4737    0.0000 O   0  0  0  0  0  0  0  0  0  0  0  0
    8.3257   -1.5158    0.0000 O   0  0  0  0  0  0  0  0  0  0  0  0
    8.4400   -3.2411    0.0000 C   0  0  0  0  0  0  0  0  0  0  0  0
    7.1755   -3.9661    0.0000 C   0  0  0  0  0  0  0  0  0  0  0  0
    5.0406   -1.8374    0.0000 N   0  0  0  0  0  0  0  0  0  0  0  0
    8.0399   -3.9479    0.0000 C   0  0  0  0  0  0  0  0  0  0  0  0
    4.3085   -1.8521    0.0000 C   0  0  2  0  0  0  0  0  0  0  0  0
    3.9085   -1.1376    0.0000 C   0  0  0  0  0  0  0  0  0  0  0  0
    3.8902   -2.4945    0.0000 C   0  0  0  0  0  0  0  0  0  0  0  0
    3.1050   -1.1376    0.0000 C   0  0  0  0  0  0  0  0  0  0  0  0
    3.0652   -2.4979    0.0000 C   0  0  0  0  0  0  0  0  0  0  0  0
    2.6694   -1.8087    0.0000 C   0  0  2  0  0  0  0  0  0  0  0  0
    2.0404   -2.4945    0.0000 C   0  0  0  0  0  0  0  0  0  0  0  0
    1.9192   -1.2161    0.0000 C   0  0  0  0  0  0  0  0  0  0  0  0
    2.5014   -3.2411    0.0000 C   0  0  0  0  0  0  0  0  0  0  0  0
    1.2516   -2.4945    0.0000 C   0  0  0  0  0  0  0  0  0  0  0  0
    0.9658   -1.2161    0.0000 N   0  0  0  0  0  0  0  0  0  0  0  0
    1.9836   -3.8946    0.0000 C   0  0  0  0  0  0  0  0  0  0  0  0
    0.7333   -3.2055    0.0000 C   0  0  0  0  0  0  0  0  0  0  0  0
    1.2194   -3.8946    0.0000 C   0  0  0  0  0  0  0  0  0  0  0  0
    0.7158   -4.5839    0.0000 F   0  0  0  0  0  0  0  0  0  0  0  0
    4.7698   -1.0275    0.0000 H   0  0  0  0  0  0  0  0  0  0  0  0
  1  2  1  1  0  0  0
  1  3  1  0  0  0  0
  1  4  1  0  0  0  0
  1  5  1  6  0  0  0
  2  6  2  0  0  0  0
  2  7  1  0  0  0  0
  3  8  1  0  0  0  0
  3  9  1  1  0  0  0
  4 10  1  0  0  0  0
  5 11  1  0  0  0  0
  5 12  2  0  0  0  0
  6 13  1  0  0  0  0
  7 14  2  0  0  0  0
  8 15  1  0  0  0  0
 13 16  2  0  0  0  0
 15 17  1  0  0  0  0
 17 18  1  0  0  0  0
 17 19  1  0  0  0  0
 18 20  1  0  0  0  0
 19 21  1  0  0  0  0
 20 22  1  0  0  0  0
 22 23  1  6  0  0  0
 22 24  1  1  0  0  0
 23 25  2  0  0  0  0
 23 26  1  0  0  0  0
 24 27  3  0  0  0  0
 25 28  1  0  0  0  0
 26 29  2  0  0  0  0
 28 30  2  0  0  0  0
 30 31  1  0  0  0  0
 10 15  1  0  0  0  0
 14 16  1  0  0  0  0
 21 22  1  0  0  0  0
 29 30  1  0  0  0  0
 17 32  1  6  0  0  0
M  END
>  <INDICATION>
Antineoplastic
Antihistaminic
As an ophthalmic for the temporary relief of the signs and symptoms of seasonal allergic conjunctivitis. Also used as a nasal spray for allergic rhinitis.

>  <PUBCHEM_CID>
54384
54385
189911

>  <EXT_ID>
NPC-7234157
NIH Center for Chemical Genomics:NCTR-270
Prestwick:13H10
Prestwick:CAS-79547-78-7
DB01106
NCGC00179240

>  <ID>
LWI

$$$$
